145
# xyz file created automatically from geometry.in.
Mo        0.82182797       1.73618704      11.20825327 
Mo        3.98336567       1.74156935      11.20172493 
S        2.40464816       2.65231691      12.77407147 
S        2.39792668       2.64618600       9.63399334 
Mo        2.40128564       4.47273738      11.19983282 
S        0.82409289       5.38764093      12.77109334 
S        0.81938169       5.38019223       9.63073268 
Mo        7.14130902       1.74806041      11.19070769 
S        5.56885848       2.66561416      12.76258175 
S        5.55575609       2.65194995       9.62287231 
S        8.71980720       2.68118774      12.74706882 
S        8.71977891       2.65203027       9.61195411 
Mo        5.55830149       4.48368014      11.18332367 
S        3.98773514       5.39025087      12.76228033 
S        3.97208153       5.37858196       9.61960565 
Mo        8.71980257       4.49685347      11.16014793 
S        7.16667250       5.43223723      12.73324680 
S        7.12319380       5.39487430       9.59054148 
Mo        0.82453973       7.20735492      11.19593422 
Mo        3.98808961       7.20125695      11.18110163 
S        2.41598582       8.11981442      12.75779025 
S        2.40129129       8.11294356       9.61838193 
Mo        2.40944037       9.93888537      11.18482375 
S        0.82907189      10.84945689      12.75850572 
S        0.82173626      10.85282475       9.62143094 
Mo        7.17765084       7.23009069      11.12569198 
S        5.61339219       8.12077920      12.73138736 
S        5.56137459       8.09925784       9.58889109 
O        8.71980412       8.12130711      12.40629828 
S        8.71978109       8.11975424       9.52078918 
Mo        5.58060865       9.93206366      11.15706682 
S        4.00612393      10.83986829      12.74210516 
S        3.98358510      10.85365829       9.60739686 
Mo        8.71980146       9.90095357      11.12454575 
S        7.16678180      10.81010743      12.73043364 
S        7.15799914      10.86496367       9.58802579 
Mo       10.29828759       1.74805829      11.19067361 
Mo       13.45622621       1.74157189      11.20166123 
S       11.87075121       2.66561427      12.76253554 
S       11.88382484       2.65194993       9.62281653 
Mo       11.88129869       4.48366850      11.18327357 
S       10.27295321       5.43224617      12.73322369 
S       10.31638130       5.39487372       9.59051117 
Mo       16.61776640       1.73618446      11.20822129 
S       15.03493752       2.65231198      12.77402446 
S       15.04168797       2.64618256       9.63394039 
S       18.19776008       2.65050426      12.77709853 
S       18.19778844       2.64579283       9.63800036 
Mo       15.03830175       4.47273527      11.19978294 
S       13.45186445       5.39025959      12.76222983 
S       13.46752157       5.37858517       9.61955427 
Mo       18.19777595       4.47234471      11.20438930 
S       16.61548465       5.38764145      12.77106262 
S       16.62024082       5.38019220       9.63071313 
Mo       10.26195344       7.23008875      11.12565190 
Mo       13.45151233       7.20126555      11.18104714 
S       11.82621702       8.12078125      12.73134295 
S       11.87821381       8.09925649       9.58884127 
Mo       11.85900591       9.93206488      11.15701648 
S       10.27285025      10.81011192      12.73039928 
S       10.28158379      10.86495902       9.58799572 
Mo       16.61506729       7.20736173      11.19590867 
S       15.02360673       8.11981314      12.75775080 
S       15.03832744       8.11293333       9.61832893 
S       18.19776662       8.12078605      12.76475476 
S       18.19779037       8.11570104       9.62617862 
Mo       15.03017348       9.93886649      11.18477155 
S       13.43349256      10.83987916      12.74203833 
S       13.45603328      10.85365034       9.60733505 
Mo       18.19778328       9.94082828      11.19238728 
S       16.61051130      10.84946281      12.75847243 
S       16.61789547      10.85282105       9.62140103 
Mo        0.82427221      12.67533273      11.19258132 
Mo        3.98898694      12.67298886      11.18561122 
S        2.40925240      13.58049572      12.76119671 
S        2.40301349      13.59209787       9.62393300 
Mo        2.40407026      15.41185153      11.19941034 
S        0.82354545      16.32026434      12.77152799 
S        0.82221458      16.32813047       9.63393100 
Mo        7.15037417      12.67661520      11.17987817 
S        5.56967560      13.57660269      12.75793203 
S        5.56579655      13.59448215       9.61865482 
S        8.71981734      13.58387287      12.75947213 
S        8.71978377      13.60240786       9.61709046 
Mo        5.56371138      15.41183776      11.19719467 
S        3.98465217      16.32100648      12.77000161 
S        3.98243880      16.32923264       9.63212971 
Mo        8.71981193      15.41663252      11.19673015 
S        7.14120635      16.32535286      12.76922467 
S        7.14058082      16.33271032       9.62976818 
Mo        0.82238775      18.14976960      11.20704018 
Mo        3.98274992      18.15134606      11.20508606 
S        2.40355424      19.06204656      12.77616720 
S        2.40140788      19.06474165       9.63833914 
Mo        2.40252939      20.88909232      11.20830082 
S        0.82284797      21.80011995      12.77888056 
S        0.82085065      21.79893253       9.64013953 
Mo        7.14071893      18.15438468      11.20279831 
S        5.56263491      19.06699283      12.77327836 
S        5.56011358      19.06680743       9.63510511 
S        8.71981572      19.06964552      12.77119567 
S        8.71977725      19.06735563       9.63302854 
Mo        5.56175323      20.89284881      11.20328649 
S        3.98503646      21.80632350      12.77423577 
S        3.97951012      21.80179482       9.63585843 
Mo        8.71979539      20.89472486      11.19967010 
S        7.14292802      21.81422733      12.76692001 
S        7.13882874      21.80286792       9.62919810 
Mo       10.28923151      12.67661654      11.17984188 
Mo       13.45060329      12.67299913      11.18554089 
S       11.86994858      13.57661548      12.75787469 
S       11.87379396      13.59447937       9.61858454 
Mo       11.87588175      15.41184547      11.19712328 
S       10.29843000      16.32535632      12.76919393 
S       10.29899059      16.33270971       9.62971778 
Mo       16.61534130      12.67532979      11.19254591 
S       15.03034423      13.58049966      12.76112353 
S       15.03661645      13.59208690       9.62387704 
S       18.19776675      13.58268579      12.76425740 
S       18.19779951      13.59114713       9.62673667 
Mo       15.03553770      15.41186832      11.19933973 
S       13.45495045      16.32100671      12.76992254 
S       13.45716428      16.32922385       9.63204630 
Mo       18.19777926      15.41184503      11.20078995 
S       16.61603566      16.32026432      12.77149331 
S       16.61743089      16.32812517       9.63388462 
Mo       10.29888924      18.15438425      11.20275608 
Mo       13.45685830      18.15134528      11.20500368 
S       11.87698226      19.06699438      12.77321058 
S       11.87946688      19.06680771       9.63503560 
Mo       11.87785726      20.89285114      11.20322049 
S       10.29669752      21.81422343      12.76688554 
S       10.30073849      21.80286646       9.62916337 
Mo       16.61721234      18.14976541      11.20699821 
S       15.03603167      19.06204739      12.77610219 
S       15.03821500      19.06474136       9.63826737 
S       18.19775620      19.05990169      12.77764641 
S       18.19779437      19.06356979       9.63939817 
Mo       15.03705335      20.88909240      11.20823455 
S       13.45456498      21.80632776      12.77417308 
S       13.46009042      21.80180431       9.63578170 
Mo       18.19777912      20.88677709      11.21021558 
S       16.61672263      21.80011553      12.77884125 
S       16.61877926      21.79893116       9.64010876 
H        8.71986730       8.12240198      13.39475686 
