144
# xyz file created automatically from geometry.in.
Mo        0.81859893       1.73600810      11.21912485 
Mo        3.97967855       1.74173225      11.21001155 
S        2.40377953       2.65488075      12.78195309 
S        2.39385713       2.64272036       9.64221047 
Mo        2.40026899       4.47177959      11.20411759 
S        0.82372943       5.38567346      12.77695400 
S        0.81523420       5.37684036       9.63711807 
Mo        7.13496374       1.74574325      11.19559878 
S        5.56711381       2.67238906      12.76592663 
S        5.55079670       2.64662222       9.62685088 
S        8.71135442       2.68363356      12.75045112 
S        8.71135958       2.64058438       9.61121898 
Mo        5.56209190       4.48555239      11.18070642 
S        3.99461327       5.39344032      12.75917791 
S        3.96883310       5.37524442       9.61785299 
Mo        8.71135881       4.49031155      11.15312636 
S        7.16437668       5.44891105      12.71689412 
S        7.12136080       5.38396738       9.57901864 
Mo        0.82270177       7.20272010      11.20161276 
Mo        3.99254266       7.20167060      11.17801704 
S        2.42069356       8.11274424      12.75979678 
S        2.39590165       8.10958009       9.62099399 
Mo        2.40552554       9.93233356      11.18875856 
S        0.82689186      10.83963808      12.76649348 
S        0.81594264      10.84770419       9.62910228 
Mo        7.19456715       7.23860919      11.09768550 
S        5.62722210       8.10821225      12.71484306 
S        5.55227925       8.10122105       9.57716925 
O        8.71134138       8.11435133      12.18593214 
S        8.71135789       8.11335988       9.43213223 
Mo        5.57194567       9.92579385      11.15000364 
S        4.00499068      10.82865107      12.74537543 
S        3.97121182      10.85031045       9.60642515 
Mo        8.71135456       9.86489556      11.09671935 
S        7.17497368      10.78635728      12.71450306 
S        7.14235339      10.85525161       9.57677732 
Mo       10.28776836       1.74575591      11.19560378 
Mo       13.44307302       1.74174436      11.21002075 
S       11.85562735       2.67238243      12.76593733 
S       11.87194886       2.64661510       9.62685788 
Mo       11.86065177       4.48555524      11.18071504 
S       10.25836024       5.44891146      12.71689352 
S       10.30138236       5.38396356       9.57902489 
Mo       16.60414796       1.73600410      11.21912916 
S       15.01897797       2.65488157      12.78197090 
S       15.02889560       2.64272189       9.64221167 
S       18.18463245       2.65112723      12.78742912 
S       18.18462749       2.64291837       9.64807168 
Mo       15.02248764       4.47177306      11.20412564 
S       13.42813371       5.39343735      12.75917841 
S       13.45391462       5.37524346       9.61787144 
Mo       18.18464175       4.47037300      11.21232534 
S       16.59902576       5.38567540      12.77695546 
S       16.60751334       5.37684224       9.63712760 
Mo       10.22816856       7.23862151      11.09768807 
Mo       13.43020427       7.20166495      11.17802859 
S       11.79551874       8.10820716      12.71484629 
S       11.87046767       8.10121971       9.57717945 
Mo       11.85079368       9.92579911      11.15001182 
S       10.24775524      10.78635739      12.71450213 
S       10.28038486      10.85525283       9.57678771 
Mo       16.60004158       7.20272631      11.20161730 
S       15.00205592       8.11274598      12.75981487 
S       15.02684295       8.10958317       9.62099308 
S       18.18463531       8.11336677      12.77086607 
S       18.18463081       8.11075401       9.63314406 
Mo       15.01723416       9.93232606      11.18876757 
S       13.41775857      10.82864956      12.74537543 
S       13.45153675      10.85031019       9.60644609 
Mo       18.18463066       9.93410398      11.20041050 
S       16.59585765      10.83964026      12.76650269 
S       16.60679873      10.84770695       9.62910348 
Mo        0.81989923      12.66713615      11.20318560 
Mo        3.98347241      12.66280710      11.19090755 
S        2.40700371      13.56883647      12.77102076 
S        2.39590760      13.58533857       9.63359343 
Mo        2.39929357      15.40195888      11.21183364 
S        0.82014936      16.31001967      12.78586214 
S        0.81734796      16.31993273       9.64774444 
Mo        7.14282253      12.65518071      11.17799579 
S        5.56919263      13.55774269      12.76191790 
S        5.55682935      13.58468073       9.62316769 
S        8.71135550      13.55854415      12.75751860 
S        8.71135988      13.58987634       9.61643757 
Mo        5.55843707      15.39826964      11.20616015 
S        3.98173864      16.30777070      12.78173325 
S        3.97612622      16.31894561       9.64377042 
Mo        8.71135570      15.40043733      11.20255260 
S        7.13560061      16.30831020      12.77805952 
S        7.13230862      16.32067407       9.63870292 
Mo        0.81832192      18.14006363      11.22197054 
Mo        3.97754015      18.13962541      11.21820984 
S        2.40009037      19.05191154      12.79043286 
S        2.39620702      19.05391132       9.65218611 
Mo        2.39828431      20.87856805      11.22155217 
S        0.81974583      21.79157895      12.79202787 
S        0.81665220      21.78715943       9.65305791 
Mo        7.13353539      18.14049301      11.21395278 
S        5.55758418      19.05473970      12.78560853 
S        5.55313477      19.05394549       9.64694114 
S        8.71135146      19.05643266      12.78261704 
S        8.71135627      19.05352137       9.64389772 
Mo        5.55572998      20.88050580      11.21457345 
S        3.98133443      21.79805125      12.78533636 
S        3.97388886      21.78904176       9.64698760 
Mo        8.71137034      20.88131767      11.21009499 
S        7.13624168      21.80478617      12.77613989 
S        7.13126691      21.78721947       9.63823090 
Mo       10.27990674      12.65518592      11.17800150 
Mo       13.43926589      12.66281545      11.19091882 
S       11.85354147      13.55773660      12.76193142 
S       11.86591038      13.58467570       9.62317211 
Mo       11.86431359      15.39826875      11.20616955 
S       10.28713200      16.30831415      12.77805699 
S       10.29043260      16.32067805       9.63871661 
Mo       16.60284769      12.66713020      11.20319049 
S       15.01574893      13.56883249      12.77103373 
S       15.02683949      13.58533561       9.63359854 
S       18.18463161      13.57261557      12.77643143 
S       18.18462675      13.58489124       9.63845567 
Mo       15.02345198      15.40195096      11.21184253 
S       13.44100700      16.30777391      12.78173460 
S       13.44661912      16.31894977       9.64379054 
Mo       18.18464158      15.40312483      11.21478391 
S       16.60260368      16.31001812      12.78586337 
S       16.60539676      16.31993169       9.64775371 
Mo       10.28919731      18.14051165      11.21395759 
Mo       13.44520626      18.13963037      11.21822072 
S       11.86515885      19.05473266      12.78562307 
S       11.86961371      19.05393919       9.64694480 
Mo       11.86700046      20.88050087      11.21458250 
S       10.28649628      21.80479435      12.77615123 
S       10.29147920      21.78722783       9.63822994 
Mo       16.60441961      18.14006259      11.22197556 
S       15.02266125      19.05191194      12.79044837 
S       15.02653916      19.05391274       9.65218917 
S       18.18463582      19.05069264      12.79279321 
S       18.18463095      19.05366551       9.65427242 
Mo       15.02447509      20.87856302      11.22156168 
S       13.44140943      21.79804926      12.78532917 
S       13.44885532      21.78904065       9.64701567 
Mo       18.18463797      20.87704048      11.22445022 
S       16.60300970      21.79158211      12.79203172 
S       16.60609485      21.78716276       9.65306491 
